# created with PyMOL 3.0.4
@<TRIPOS>MOLECULE
8G8O
55 58 1                 
SMALL
USER_CHARGES
@<TRIPOS>ATOM
1	  C1	18.692	16.956	22.025	C.3	1	YT01	0.000	
2	  C2	18.154	18.072	21.186	C.2	1	YT01	0.000	
3	  C3	17.000	18.853	21.433	C.2	1	YT01	0.000	
4	  C4	16.892	19.917	20.608	C.2	1	YT01	0.000	
5	  C5	15.786	22.040	20.028	C.2	1	YT01	0.000	
6	  C6	14.677	24.028	19.795	C.2	1	YT01	0.000	
7	  C7	15.490	24.406	18.752	C.2	1	YT01	0.000	
8	  N1	15.890	20.837	20.692	N.pl3	1	YT01	0.000	
9	  C8	15.275	25.755	18.112	C.3	1	YT01	0.000	
10	  C9	16.502	23.485	18.378	C.2	1	YT01	0.000	
11	 C10	18.464	22.804	16.823	C.3	1	YT01	0.000	
12	 C11	18.309	23.522	15.447	C.3	1	YT01	0.000	
13	 C12	17.767	22.568	14.398	C.3	1	YT01	0.000	
14	 C13	16.321	22.588	14.195	C.1	1	YT01	0.000	
15	 C14	19.631	24.996	13.994	C.3	1	YT01	0.000	
16	 C15	20.991	25.645	13.843	C.3	1	YT01	0.000	
17	  N2	14.807	22.865	20.439	N.2	1	YT01	0.000	
18	 C16	23.327	25.270	13.439	C.3	1	YT01	0.000	
19	 C17	22.026	23.607	14.561	C.3	1	YT01	0.000	
20	 C18	20.667	22.981	14.778	C.3	1	YT01	0.000	
21	 C19	17.267	24.561	16.100	C.3	1	YT01	0.000	
22	  N3	17.374	23.682	17.273	N.pl3	1	YT01	0.000	
23	  N4	15.194	22.579	13.963	N.1	1	YT01	0.000	
24	  N5	19.668	24.019	15.091	N.4	1	YT01	0.000	
25	  N6	22.006	24.641	13.529	N.4	1	YT01	0.000	
26	  N7	16.642	22.316	19.023	N.2	1	YT01	0.000	
27	  S1	18.115	19.828	19.398	S.3	1	YT01	0.000	
28	  N8	18.749	18.406	20.036	N.2	1	YT01	0.000	
29	  H3	16.279	18.622	22.203	 H	1	YT01	0.000	
30	  H6	13.896	24.704	20.108	 H	1	YT01	0.000	
31	 HN1	15.131	20.609	21.318	 H	1	YT01	0.000	
32	H102	18.228	21.740	16.818	 H	1	YT01	0.000	
33	H103	19.414	23.024	17.311	 H	1	YT01	0.000	
34	H122	18.240	22.815	13.448	 H	1	YT01	0.000	
35	H123	18.060	21.555	14.673	 H	1	YT01	0.000	
36	H142	18.887	25.761	14.215	 H	1	YT01	0.000	
37	H143	19.366	24.490	13.066	 H	1	YT01	0.000	
38	H152	20.951	26.378	13.038	 H	1	YT01	0.000	
39	H153	21.256	26.146	14.774	 H	1	YT01	0.000	
40	H172	22.726	22.827	14.261	 H	1	YT01	0.000	
41	H173	22.367	24.048	15.498	 H	1	YT01	0.000	
42	H182	20.725	22.276	15.607	 H	1	YT01	0.000	
43	H183	20.366	22.451	13.875	 H	1	YT01	0.000	
44	H192	17.641	25.575	16.239	 H	1	YT01	0.000	
45	H193	16.283	24.530	15.632	 H	1	YT01	0.000	
46	 HN6	21.783	24.215	12.641	 H	1	YT01	0.000	
47	H161	23.311	26.041	12.669	 H	1	YT01	0.000	
48	H162	23.581	25.720	14.399	 H	1	YT01	0.000	
49	H163	24.072	24.516	13.183	 H	1	YT01	0.000	
50	 H81	14.572	26.334	18.711	 H	1	YT01	0.000	
51	 H82	16.226	26.285	18.054	 H	1	YT01	0.000	
52	 H83	14.872	25.621	17.108	 H	1	YT01	0.000	
53	 H11	18.074	16.839	22.915	 H	1	YT01	0.000	
54	 H12	18.679	16.030	21.450	 H	1	YT01	0.000	
55	 H13	19.716	17.185	22.321	 H	1	YT01	0.000	
@<TRIPOS>BOND
1 1 2 1
2 2 3 1
3 2 28 2
4 3 4 2
5 4 8 1
6 4 27 1
7 5 8 1
8 5 17 1
9 5 26 2
10 6 7 1
11 6 17 2
12 7 9 1
13 7 10 2
14 10 22 1
15 10 26 1
16 11 12 1
17 11 22 1
18 12 13 1
19 12 21 1
20 12 24 1
21 13 14 1
22 14 23 3
23 15 16 1
24 15 24 1
25 16 25 1
26 18 25 1
27 19 20 1
28 19 25 1
29 20 24 1
30 21 22 1
31 27 28 1
32 3 29 1
33 6 30 1
34 8 31 1
35 11 32 1
36 11 33 1
37 13 34 1
38 13 35 1
39 15 36 1
40 15 37 1
41 16 38 1
42 16 39 1
43 19 40 1
44 19 41 1
45 20 42 1
46 20 43 1
47 21 44 1
48 21 45 1
49 25 46 1
50 18 47 1
51 18 48 1
52 18 49 1
53 9 50 1
54 9 51 1
55 9 52 1
56 1 53 1
57 1 54 1
58 1 55 1
@<TRIPOS>SUBSTRUCTURE
1	YT01	1	GROUP	1 A	YT0
