@<TRIPOS>MOLECULE
MOL
   55    58     1     0     0
SMALL
rc


@<TRIPOS>ATOM
      1 C1           5.8930    -3.6820     0.0330 c3         1 MOL      -0.200769
      2 C2           4.8770    -2.5860    -0.0750 cc         1 MOL       0.392088
      3 C3           5.1810    -1.2240    -0.3260 cc         1 MOL      -0.323855
      4 C4           4.0340    -0.4560    -0.3660 cd         1 MOL       0.064465
      5 C5           2.8590     1.6900    -0.6560 ca         1 MOL       0.695377
      6 C6           1.9390     3.7180    -1.0340 ca         1 MOL       0.171952
      7 C7           0.6490     3.2260    -0.8260 ca         1 MOL      -0.096056
      8 N1           3.9830     0.9060    -0.6000 nu         1 MOL      -0.377956
      9 C8          -0.5680     4.0830    -1.0210 c3         1 MOL      -0.278572
     10 C9           0.5940     1.8660    -0.4770 ca         1 MOL       0.459584
     11 C10         -0.5640    -0.1000     0.4510 cy         1 MOL       0.002638
     12 C11         -1.9550     0.2190     1.0460 cy         1 MOL       0.118155
     13 C12         -2.1430    -0.0510     2.5500 c3         1 MOL      -0.021797
     14 C13         -1.1050     0.5950     3.3530 c1         1 MOL       0.241529
     15 C14         -4.3550     0.1460     0.4310 c6         1 MOL      -0.045549
     16 C15         -5.2060    -0.2220    -0.7720 c6         1 MOL      -0.036414
     17 N2           3.0580     2.9850    -0.9530 nb         1 MOL      -0.673272
     18 C16         -6.0610    -2.1400    -2.1150 c3         1 MOL      -0.235730
     19 C17         -3.8470    -2.2980    -0.9800 c6         1 MOL      -0.036414
     20 C18         -3.0630    -1.8340     0.2340 c6         1 MOL      -0.045549
     21 C19         -1.6860     1.6850     0.6190 cy         1 MOL       0.002638
     22 N3          -0.6050     1.1900    -0.2580 nn         1 MOL      -0.513644
     23 N4          -0.2580     1.1470     3.9640 n1         1 MOL      -0.394198
     24 N5          -3.0150    -0.3790     0.2210 n3         1 MOL      -0.283119
     25 N6          -5.2420    -1.7220    -0.9330 nx         1 MOL      -0.122937
     26 N7           1.6860     1.0910    -0.4030 nb         1 MOL      -0.429687
     27 S1           2.6690    -1.4890    -0.0860 ss         1 MOL       0.086791
     28 N8           3.5840    -2.8810     0.0730 nd         1 MOL      -0.489084
     29 H1           6.1820    -0.8290    -0.4680 ha         1 MOL       0.169942
     30 H2           2.0810     4.7660    -1.2960 h4         1 MOL       0.166968
     31 H3           4.8550     1.3940    -0.7850 hn         1 MOL       0.337765
     32 H4           0.2250    -0.1410     1.2120 h1         1 MOL       0.112871
     33 H5          -0.4630    -0.9700    -0.2050 h1         1 MOL       0.112871
     34 H6          -3.1200     0.3150     2.8890 hc         1 MOL       0.073223
     35 H7          -2.1130    -1.1300     2.7470 hc         1 MOL       0.073223
     36 H8          -4.3280     1.2370     0.4990 h1         1 MOL       0.084861
     37 H9          -4.8380    -0.2270     1.3550 h1         1 MOL       0.084861
     38 H10         -6.2410     0.1170    -0.6720 hx         1 MOL       0.128900
     39 H11         -4.7690     0.1800    -1.6890 hx         1 MOL       0.128900
     40 H12         -3.9470    -3.3860    -1.0220 hx         1 MOL       0.128900
     41 H13         -3.3860    -1.9310    -1.8990 hx         1 MOL       0.128900
     42 H14         -2.0540    -2.2460     0.1560 h1         1 MOL       0.084861
     43 H15         -3.5180    -2.2510     1.1530 h1         1 MOL       0.084861
     44 H16         -2.4910     2.2130     0.0990 h1         1 MOL       0.112871
     45 H17         -1.3250     2.2980     1.4550 h1         1 MOL       0.112871
     46 H18         -5.6940    -2.1030    -0.0890 hn         1 MOL       0.308493
     47 H19         -7.0680    -1.7370    -2.0060 hx         1 MOL       0.151537
     48 H20         -5.5890    -1.7420    -3.0130 hx         1 MOL       0.151537
     49 H21         -6.0910    -3.2290    -2.1550 hx         1 MOL       0.151537
     50 H22         -0.2860     5.0290    -1.4900 hc         1 MOL       0.087096
     51 H23         -1.2910     3.5850    -1.6770 hc         1 MOL       0.087096
     52 H24         -1.0710     4.3220    -0.0780 hc         1 MOL       0.087096
     53 H25          6.4740    -3.7720    -0.8910 hc         1 MOL       0.072448
     54 H26          6.5940    -3.4890     0.8510 hc         1 MOL       0.072448
     55 H27          5.3860    -4.6300     0.2220 hc         1 MOL       0.072448
@<TRIPOS>BOND
     1     1     2 1   
     2     1    53 1   
     3     1    54 1   
     4     1    55 1   
     5     2     3 1   
     6     2    28 2   
     7     3     4 2   
     8     3    29 1   
     9     4     8 1   
    10     4    27 1   
    11     5     8 1   
    12     5    17 ar  
    13     5    26 ar  
    14     6     7 ar  
    15     6    17 ar  
    16     6    30 1   
    17     7     9 1   
    18     7    10 ar  
    19     8    31 1   
    20     9    50 1   
    21     9    51 1   
    22     9    52 1   
    23    10    22 1   
    24    10    26 ar  
    25    11    12 1   
    26    11    22 1   
    27    11    32 1   
    28    11    33 1   
    29    12    13 1   
    30    12    21 1   
    31    12    24 1   
    32    13    14 1   
    33    13    34 1   
    34    13    35 1   
    35    14    23 3   
    36    15    16 1   
    37    15    24 1   
    38    15    36 1   
    39    15    37 1   
    40    16    25 1   
    41    16    38 1   
    42    16    39 1   
    43    18    25 1   
    44    18    47 1   
    45    18    48 1   
    46    18    49 1   
    47    19    20 1   
    48    19    25 1   
    49    19    40 1   
    50    19    41 1   
    51    20    24 1   
    52    20    42 1   
    53    20    43 1   
    54    21    22 1   
    55    21    44 1   
    56    21    45 1   
    57    25    46 1   
    58    27    28 1   
@<TRIPOS>SUBSTRUCTURE
     1 MOL         1 TEMP              0 ****  ****    0 ROOT
